Terzaghi Consolidation                                                          
ROCKS----1----*----2----*----3----*----4----*----5----*----6----*----7----*----8
GRANI    1    2700.0      0.15   4.5e-18   4.5e-18   4.5e-18       1.7       773
    0.0e-9    4.2E-5       1.7   
TOPBC    1    2700.0      0.15   4.5e-18   4.5e-18   4.5e-18       1.7       773
    0.0e-9    0.0E-5       1.7  
BOTBC    1    2700.0      0.15   4.5e-18   4.5e-18   4.5e-18       1.7       773
    0.0e-9    0.0E-5       1.7                                         

MULTI----1----*----2----*----3----*----4----*----5----*----6----*----7----*----8
    2    3    2    6                                                                         

RPCAP----1----*----2----*----3----*----4----*----5----*----6----*----7----*----8
    5            0.0       0.0                                                  
    7          0.457      0.25   5.03e-5     5.0e8       1.0   

SELEC----1----*----2----*----3----*----4----*----5----*----6----*----7----*----8
    1
     1.0e5    3.0e-5    1.0e-4    4.0E-4   4.5e-10    4180.0       1.0    0.0e-7

START----1----*----2----*----3----*----4----*----5----*----6----*----7----*----8
PARAM----1-MOP: 123456789*123456789*1234----*----5----*----6----*----7----*----8
    9999     1001   3    0111 04 00 8                                           
       0.0     2.0e6    1.0e-4     1.0e5                 0.0       4.0          
    1.0e-6       1.0                                  1.0e-8

INDOM----1----*----2----*----3----*----4----*----5----*----6----*----7----*----8
GRANI                                                                           
            100000.0                 0.0                25.0                                    
TOPBC                                                                           
            100000.0                 0.0                25.0
BOTBC                                                                           
            200000.0                 0.0                25.0


TIMES----1----*----2----*----3----*----4----*----5----*----6----*----7----*----8
   26                                                                             
 1.09854e5 1.23548e5 1.38949e5 1.56270e5 1.75751e5 1.97659e5 2.22299e5 2.50011e5
 2.81176e5 3.16227e5 3.55648e5 3.99982e5 4.49843e5 5.05919e5 5.68986e5 6.39915e5
 7.19685e5 8.09400e5 9.10298e5 1.02377e6 1.15139e6 1.29492e6 1.45634e6 1.63789e6
 1.84206e6     2.0e6

MOMOP----1----*----2----*----3----*----4----*----5----*----6----*----7----*----8
2               1

FOFT ----1----*----2----*----3----*----4----*----5----*----6----*----7----*----8
A11 0
A11 6
A11 8
A1111
A1115
A3B70

GENER----1----*----2----*----3----*----4----*----5----*----6----*----7----*----8
 

INCON


OUTPU----1----*----2----*----3----*----4----*----5----*----6----*----7----*----8
5                                                                               
COORDINATE              7                                                       
TEMPERATURE                                                                     
PRESSURE                                                                                                                                   
SATURATION              2                                                       
POROSITY                                                                        

                                                    
ENDCY----1----*----2----*----3----*----4----*----5----*----6----*----7----*----8




